powerflow/Codes/PF_Formulation/resultados_csv/19/9bus/ramos.csv
caso,script,branch_id,f_bus,t_bus,pf_pu,qf_pu,pt_pu,qt_pu,loss_p_pu,loss_q_pu
9bus.pwf,19,1,7,8,0.49822560874537525,0.016230412030324992,-0.49606182841006563,-0.146564633141628,0.0021637803353096174,-0.130334221111303
9bus.pwf,19,2,4,5,0.8618924305632509,0.15317068599685296,-0.8538681019938672,-0.2560319850821134,0.008024328569383732,-0.10286129908526043
9bus.pwf,19,3,4,6,0.567277549200855,-0.049016868532230445,-0.5617815469394112,-0.07721286582777029,0.005496002261443866,-0.12622973436000073
9bus.pwf,19,4,6,9,-0.33821846305954534,-0.2227871375032452,0.3428807584072356,-0.11466554440645761,0.0046622953476902484,-0.3374526819097028
9bus.pwf,19,5,7,5,0.4017743912545755,-0.02655768932656838,-0.39613190800504805,-0.24396801891406056,0.00564248324952743,-0.27052570824062894
9bus.pwf,19,6,8,9,-0.5039381815889418,-0.20343537035739734,0.5071192415926823,0.0203206079749524,0.0031810600037405212,-0.18311476238244495
9bus.pwf,19,7,1,4,1.4291699797640864,0.22264820185258216,-1.4291699797640864,-0.10415381746459218,0.0,0.11849438438798998
9bus.pwf,19,8,2,7,0.899999999999962,0.03990867639857498,-0.899999999999962,0.010327277296248383,0.0,0.050235953694823365
9bus.pwf,19,9,3,9,0.8499999999999129,-0.05243002006170627,-0.8499999999999129,0.09434493643151853,0.0,0.04191491636981226
